
     RDKit          3D

  6  6  0  0  0  0  0  0  0  0999 V2000
    2.3864   -5.9522   14.9328 C   0  0  0  0  0  0  0  0  0  0  0  0
    2.6728   -5.9330   16.0876 C   0  0  0  0  0  0  0  0  0  0  0  0
    1.8802   -4.7974   14.5532 C   0  0  0  0  0  0  0  0  0  0  0  0
    1.8203   -3.5962   15.2590 C   0  0  0  0  0  0  0  0  0  0  0  0
    2.7296   -4.8693   17.0415 C   0  0  0  0  0  0  0  0  0  0  0  0
    2.2070   -3.6025   16.4711 C   0  0  0  0  0  0  0  0  0  0  0  0
  1  2  1  0
  1  3  2  0
  3  4  1  0
  2  5  2  0
  4  6  2  0
  5  6  1  0
M  END
