
     RDKit          3D

  7  7  0  0  0  0  0  0  0  0999 V2000
    2.5377   -5.0231   18.3003 C   0  0  0  0  0  0  0  0  0  0  0  0
    2.8722   -4.5910   17.0585 C   0  0  0  0  0  0  0  0  0  0  0  0
    3.5108   -5.7260   18.9319 C   0  0  0  0  0  0  0  0  0  0  0  0
    3.3055   -6.3301   20.2734 C   0  0  0  0  0  0  0  0  0  0  0  0
    4.0295   -4.8283   16.4347 C   0  0  0  0  0  0  0  0  0  0  0  0
    4.9791   -5.5409   17.0098 C   0  0  0  0  0  0  0  0  0  0  0  0
    4.7587   -6.0790   18.2846 C   0  0  0  0  0  0  0  0  0  0  0  0
  1  2  1  0
  1  3  2  0
  3  4  1  0
  2  5  2  0
  5  6  1  0
  3  7  1  0
  6  7  2  0
M  END
