
     RDKit          3D

 11 12  0  0  0  0  0  0  0  0999 V2000
   10.1538   -5.1938   18.0485 C   0  0  0  0  0  0  0  0  0  0  0  0
    9.6779   -4.4965   17.0294 C   0  0  0  0  0  0  0  0  0  0  0  0
    9.5809   -6.4238   18.3988 C   0  0  0  0  0  0  0  0  0  0  0  0
    8.4949   -6.8409   17.7289 C   0  0  0  0  0  0  0  0  0  0  0  0
   10.2531   -3.1709   16.5821 C   0  0  0  0  0  0  0  0  0  0  0  0
    8.5820   -4.8995   16.2327 C   0  0  0  0  0  0  0  0  0  0  0  0
    7.9883   -6.1479   16.6006 C   0  0  0  0  0  0  0  0  0  0  0  0
    8.0495   -4.1962   15.1191 C   0  0  0  0  0  0  0  0  0  0  0  0
    6.9470   -4.6250   14.4956 O   0  0  0  0  0  0  0  0  0  0  0  0
    8.6518   -2.9621   14.8154 C   0  0  0  0  0  0  0  0  0  0  0  0
    9.7058   -2.4785   15.5425 C   0  0  0  0  0  0  0  0  0  0  0  0
  1  2  1  0
  1  3  2  0
  3  4  1  0
  2  5  1  0
  2  6  2  0
  4  7  2  0
  6  7  1  0
  6  8  1  0
  8  9  1  0
  8 10  2  0
  5 11  2  0
 10 11  1  0
M  END
