
     RDKit          3D

 13 14  0  0  0  0  0  0  0  0999 V2000
    5.4315    0.5098   16.3911 N   0  0  0  0  0  0  0  0  0  0  0  0
    5.3951   -0.7129   16.9470 C   0  0  0  0  0  0  0  0  0  0  0  0
    5.7685   -1.7690   16.0281 C   0  0  0  0  0  0  0  0  0  0  0  0
    4.9104    0.6248   15.0387 C   0  0  0  0  0  0  0  0  0  0  0  0
    5.9562    0.6798   14.0175 C   0  0  0  0  0  0  0  0  0  0  0  0
    6.1397   -0.3844   13.2671 C   0  0  0  0  0  0  0  0  0  0  0  0
    5.8757   -1.6713   13.9287 N   0  0  0  0  0  0  0  0  0  0  0  0
    5.5847   -0.3257   11.9439 C   0  0  0  0  0  0  0  0  0  0  0  0
    4.2063   -0.8470   15.0787 C   0  0  0  0  0  0  0  0  0  0  0  0
    4.9947   -1.8329   14.9153 C   0  0  0  0  0  0  0  0  0  0  0  0
    5.9615   -2.8886   13.1259 C   0  0  0  0  0  0  0  0  0  0  0  0
    6.9619   -3.4565   13.3517 O   0  0  0  0  0  0  0  0  0  0  0  0
    5.0839   -3.4010   12.3260 O   0  0  0  0  0  0  0  0  0  0  0  0
  1  2  1  0
  2  3  1  0
  1  4  1  0
  4  5  1  0
  5  6  1  0
  6  7  1  0
  6  8  1  0
  4  9  1  0
  3 10  1  0
  7 10  1  0
  9 10  1  0
  7 11  1  0
 11 12  2  0
 11 13  1  0
M  END
