
     RDKit          3D

 10 11  0  0  0  0  0  0  0  0999 V2000
   92.9935   97.5718  102.7495 O   0  0  0  0  0  0  0  0  0  0  0  0
   93.0941   96.3943  102.7045 C   0  0  0  0  0  0  0  0  0  0  0  0
   93.4968   95.6903  101.6195 N   0  0  0  0  0  0  0  0  0  0  0  0
   93.6941   94.3692  101.6095 C   0  0  0  0  0  0  0  0  0  0  0  0
   93.4579   93.9707  102.9405 C   0  0  0  0  0  0  0  0  0  0  0  0
   94.4652   93.5538  100.7703 C   0  0  0  0  0  0  0  0  0  0  0  0
   94.7150   92.2464  101.1527 C   0  0  0  0  0  0  0  0  0  0  0  0
   94.4991   91.8426  102.5257 C   0  0  0  0  0  0  0  0  0  0  0  0
   93.8568   92.6634  103.3630 C   0  0  0  0  0  0  0  0  0  0  0  0
   92.8148   95.2316  103.7914 C   0  0  0  0  0  0  0  0  0  0  0  0
  1  2  2  0
  2  3  1  0
  3  4  1  0
  4  5  2  0
  4  6  1  0
  6  7  2  0
  7  8  1  0
  5  9  1  0
  8  9  2  0
  2 10  1  0
  5 10  1  0
M  END
