
     RDKit          3D

 11 11  0  0  0  0  0  0  0  0999 V2000
   94.7515   94.3957   99.7856 O   0  0  0  0  0  0  0  0  0  0  0  0
   95.0528   93.5431  100.6363 C   0  0  0  0  0  0  0  0  0  0  0  0
   94.4180   93.6162  101.8882 C   0  0  0  0  0  0  0  0  0  0  0  0
   95.8547   92.6252  100.6215 O   0  0  0  0  0  0  0  0  0  0  0  0
   93.5082   94.7517  102.1826 C   0  0  0  0  0  0  0  0  0  0  0  0
   93.1045   95.7861  101.3134 O   0  0  0  0  0  0  0  0  0  0  0  0
   94.5664   92.7690  102.9729 C   0  0  0  0  0  0  0  0  0  0  0  0
   94.1034   92.9769  104.2412 C   0  0  0  0  0  0  0  0  0  0  0  0
   92.9418   94.9161  103.6112 C   0  0  0  0  0  0  0  0  0  0  0  0
   92.0476   96.0503  103.7818 O   0  0  0  0  0  0  0  0  0  0  0  0
   93.1449   94.0428  104.4789 C   0  0  0  0  0  0  0  0  0  0  0  0
  1  2  2  0
  2  3  1  0
  2  4  1  0
  3  5  2  0
  5  6  1  0
  3  7  1  0
  7  8  2  0
  5  9  1  0
  9 10  1  0
  8 11  1  0
  9 11  2  0
M  END
