
     RDKit          3D

 11 11  0  0  0  0  0  0  0  0999 V2000
   94.8581   95.3019   99.4949 O   0  0  0  0  0  0  0  0  0  0  0  0
   94.6086   94.7614  100.5521 C   0  0  0  0  0  0  0  0  0  0  0  0
   93.7610   95.5641  101.4900 C   0  0  0  0  0  0  0  0  0  0  0  0
   93.4263   95.0149  102.7687 C   0  0  0  0  0  0  0  0  0  0  0  0
   93.9004   93.6564  102.9773 C   0  0  0  0  0  0  0  0  0  0  0  0
   93.5212   93.1324  104.3496 O   0  0  0  0  0  0  0  0  0  0  0  0
   92.4849   95.6781  103.6365 C   0  0  0  0  0  0  0  0  0  0  0  0
   94.6697   92.9646  102.1926 C   0  0  0  0  0  0  0  0  0  0  0  0
   91.2442   95.2554  103.6188 O   0  0  0  0  0  0  0  0  0  0  0  0
   94.9202   93.5704  100.9155 C   0  0  0  0  0  0  0  0  0  0  0  0
   92.9590   96.1528  104.7548 O   0  0  0  0  0  0  0  0  0  0  0  0
  1  2  2  0
  2  3  1  0
  3  4  2  0
  4  5  1  0
  5  6  1  0
  4  7  1  0
  5  8  2  0
  7  9  1  0
  2 10  1  0
  8 10  1  0
  7 11  2  0
M  END
