
     RDKit          3D

 13 12  0  0  0  0  0  0  0  0999 V2000
   95.0778   95.9343   99.3638 O   0  0  0  0  0  0  0  0  0  0  0  0
   94.9629   94.8066   99.7764 N   0  0  0  0  0  0  0  0  0  0  0  0
   94.3891   94.8966  101.0946 O   0  0  0  0  0  0  0  0  0  0  0  0
   94.8399   93.6986   99.3730 O   0  0  0  0  0  0  0  0  0  0  0  0
   94.0046   93.8100  101.8630 C   0  0  0  0  0  0  0  0  0  0  0  0
   92.8928   94.2255  102.8628 C   0  0  0  0  0  0  0  0  0  0  0  0
   93.0979   95.1522  103.6376 C   0  0  0  0  0  0  0  0  0  0  0  0
   91.6456   94.4163  102.0174 C   0  0  0  0  0  0  0  0  0  0  0  0
   90.6089   95.0091  102.6667 O   0  0  0  0  0  0  0  0  0  0  0  0
   91.2274   93.5742  101.0157 O   0  0  0  0  0  0  0  0  0  0  0  0
   92.4875   96.3056  103.6859 O   0  0  0  0  0  0  0  0  0  0  0  0
   94.2031   95.1818  104.4877 O   0  0  0  0  0  0  0  0  0  0  0  0
   94.5134   96.0882  105.4692 C   0  0  0  0  0  0  0  0  0  0  0  0
  1  2  1  0
  2  3  1  0
  2  4  2  0
  3  5  1  0
  5  6  1  0
  6  7  1  0
  6  8  1  0
  8  9  1  0
  8 10  2  0
  7 11  2  0
  7 12  1  0
 12 13  1  0
M  CHG  2   1  -1   2   1
M  END
