
     RDKit          3D

 13 14  0  0  0  0  0  0  0  0999 V2000
   95.0061   96.1921   99.0773 O   0  0  0  0  0  0  0  0  0  0  0  0
   95.0276   95.0283   99.6252 N   0  0  0  0  0  0  0  0  0  0  0  0
   94.5366   94.9574  100.8210 C   0  0  0  0  0  0  0  0  0  0  0  0
   94.4912   93.6777  101.5276 C   0  0  0  0  0  0  0  0  0  0  0  0
   94.0699   96.0275  101.4559 N   0  0  0  0  0  0  0  0  0  0  0  0
   93.9326   93.6976  102.8878 C   0  0  0  0  0  0  0  0  0  0  0  0
   94.9759   92.4565  101.1098 C   0  0  0  0  0  0  0  0  0  0  0  0
   93.9760   92.4852  103.6725 C   0  0  0  0  0  0  0  0  0  0  0  0
   93.4274   95.9616  102.7191 C   0  0  0  0  0  0  0  0  0  0  0  0
   95.0610   91.3629  101.8965 C   0  0  0  0  0  0  0  0  0  0  0  0
   93.3865   94.8919  103.4716 N   0  0  0  0  0  0  0  0  0  0  0  0
   94.5966   91.5243  103.3088 C   0  0  0  0  0  0  0  0  0  0  0  0
   92.8919   97.2160  103.3332 N   0  0  0  0  0  0  0  0  0  0  0  0
  1  2  1  0
  2  3  1  0
  3  4  1  0
  3  5  2  0
  4  6  2  0
  4  7  1  0
  6  8  1  0
  5  9  1  0
  7 10  2  0
  6 11  1  0
  9 11  2  0
  8 12  2  0
 10 12  1  0
  9 13  1  0
M  END
