
     RDKit          3D

 13 14  0  0  0  0  0  0  0  0999 V2000
   94.1369   97.4161  103.4720 O   0  0  0  0  0  0  0  0  0  0  0  0
   93.4954   96.3370  103.5164 C   0  0  0  0  0  0  0  0  0  0  0  0
   93.5951   95.3445  102.6417 C   0  0  0  0  0  0  0  0  0  0  0  0
   93.5860   93.9213  103.1859 C   0  0  0  0  0  0  0  0  0  0  0  0
   94.9154   93.3822  103.2311 C   0  0  0  0  0  0  0  0  0  0  0  0
   95.3850   92.5143  102.2709 C   0  0  0  0  0  0  0  0  0  0  0  0
   96.7172   92.0617  102.2414 O   0  0  0  0  0  0  0  0  0  0  0  0
   94.4426   91.7792  101.5386 C   0  0  0  0  0  0  0  0  0  0  0  0
   92.7378   96.0196  104.5547 O   0  0  0  0  0  0  0  0  0  0  0  0
   93.1673   92.2144  101.3563 C   0  0  0  0  0  0  0  0  0  0  0  0
   92.6873   93.3594  102.0790 C   0  0  0  0  0  0  0  0  0  0  0  0
   92.3566   95.4494  101.8224 O   0  0  0  0  0  0  0  0  0  0  0  0
   91.8977   94.1983  101.7252 N   0  0  0  0  0  0  0  0  0  0  0  0
  1  2  2  0
  2  3  1  0
  3  4  1  0
  4  5  1  0
  5  6  2  0
  6  7  1  0
  6  8  1  0
  2  9  1  0
  8 10  2  0
  4 11  1  0
 10 11  1  0
  3 12  1  0
 11 13  2  0
 12 13  1  0
M  END
